13

N .000000 .000000 .395846
C .000000 1.378021 -.065175
C 1.193401 -.689011 -.065175
C -1.193401 -.689011 -.065175
H .000000 1.461142 -1.167899
H .886156 1.891052 .317655
H -.886156 1.891052 .317655
H 1.265386 -.730571 -1.167899
H 1.194621 -1.712960 .317655
H 2.080777 -.178092 .317655
H -1.265386 -.730571 -1.167899
H -2.080777 -.178092 .317655
H -1.194621 -1.712960 .317655
