13

C .000000 .000000 .191929
C .000000 1.478187 -.020866
C 1.280147 -.739093 -.020866
C -1.280147 -.739093 -.020866
H .000000 1.731496 -1.093792
H -.887043 1.945769 .417565
H .887043 1.945769 .417565
H 1.499520 -.865748 -1.093792
H 2.128607 -.204683 .417565
H 1.241564 -1.741086 .417565
H -1.499520 -.865748 -1.093792
H -1.241564 -1.741086 .417565
H -2.128607 -.204683 .417565
